sol/case118.m
function mpc = case118
%CASE118

%% MATPOWER Case Format : Version 2
mpc.version = '2';

%%-----  Power Flow Data  -----%%
%% system MVA base
mpc.baseMVA = 100;

%% bus data
%	bus_i	type	Pd	Qd	Gs	Bs	area	Vm	Va	baseKV	zone	Vmax	Vmin	lam_P	lam_Q	mu_Vmax	mu_Vmin
mpc.bus = [
	1	2	51	27	0	0	1	1.03316796	17.0951497	138	1	1.06	0.94	40.5296	0.2814	0.0000	0.0000;
	2	1	20	9	0	0	1	1.03879603	17.1925494	138	1	1.06	0.94	40.4902	0.1681	0.0000	0.0000;
	3	1	39	10	0	0	1	1.03800257	17.5399043	138	1	1.06	0.94	40.3024	0.2271	0.0000	0.0000;
	4	2	39	12	0	0	1	1.05999943	20.1340143	138	1	1.06	0.94	39.3325	0.0000	54.9826	0.0000;
	5	1	0	0	0	-40	1	1.05745199	20.5766075	138	1	1.06	0.94	39.2209	0.0661	0.0000	0.0000;
	6	2	52	22	0	0	1	1.05269587	18.2871441	138	1	1.06	0.94	39.9718	0.0000	0.0000	0.0000;
	7	1	19	2	0	0	1	1.05101825	17.9892137	138	1	1.06	0.94	40.0896	0.0032	0.0000	0.0000;
	8	2	28	0	0	0	1	1.04098748	24.7030227	345	1	1.06	0.94	39.2301	-0.0000	0.0000	0.0000;
	9	1	0	0	0	0	1	1.05999995	30.9493288	345	1	1.06	0.94	38.5531	-0.1368	641.1555	0.0000;
	10	2	0	0	0	0	1	1.05297996	37.6488957	345	1	1.06	0.94	37.8609	-0.0000	0.0000	0.0000;
	11	1	70	23	0	0	1	1.04600518	18.1530887	138	1	1.06	0.94	40.1291	0.1043	0.0000	0.0000;
	12	2	47	10	0	0	1	1.04995491	17.8321931	138	1	1.06	0.94	40.1865	0.0000	0.0000	0.0000;
	13	1	34	16	0	0	1	1.03447617	17.0331518	138	1	1.06	0.94	40.6395	0.2418	0.0000	0.0000;
	14	1	14	1	0	0	1	1.04880612	17.2713163	138	1	1.06	0.94	40.4099	-0.0304	0.0000	0.0000;
	15	2	90	30	0	0	1	1.04856034	17.2298926	138	1	1.06	0.94	40.4176	0.0000	0.0000	0.0000;
	16	1	25	10	0	0	1	1.04613668	17.5429524	138	1	1.06	0.94	40.2862	0.0584	0.0000	0.0000;
	17	1	11	3	0	0	1	1.05999924	19.1029872	138	1	1.06	0.94	39.6711	-0.0445	42.8584	0.0000;
	18	2	60	34	0	0	1	1.05032318	17.5272969	138	1	1.06	0.94	40.2645	0.0000	0.0000	0.0000;
	19	2	45	25	0	0	1	1.04777773	17.1573982	138	1	1.06	0.94	40.4316	0.0071	0.0000	0.0000;
	20	1	18	3	0	0	1	1.03617839	17.4699891	138	1	1.06	0.94	40.5408	0.1229	0.0000	0.0000;
	21	1	14	8	0	0	1	1.03132168	18.5175723	138	1	1.06	0.94	40.3658	0.2018	0.0000	0.0000;
	22	1	10	5	0	0	1	1.03456821	20.3835666	138	1	1.06	0.94	39.9376	0.1837	0.0000	0.0000;
	23	1	7	3	0	0	1	1.0487431	24.2058017	138	1	1.06	0.94	39.0011	0.0282	0.0000	0.0000;
	24	2	13	0	0	0	1	1.04620825	23.6854541	138	1	1.06	0.94	39.2956	-0.0000	0.0000	0.0000;
	25	2	0	0	0	0	1	1.05999997	30.5431755	138	1	1.06	0.94	37.6194	-0.1322	1128.6133	0.0000;
	26	2	0	0	0	0	1	1.02678201	32.1641672	345	1	1.06	0.94	37.8192	-0.0000	0.0000	0.0000;
	27	2	71	13	0	0	1	1.04137184	19.8440837	138	1	1.06	0.94	40.1984	0.0000	0.0000	0.0000;
	28	1	17	7	0	0	1	1.03488089	18.4535701	138	1	1.06	0.94	40.6035	0.0612	0.0000	0.0000;
	29	1	24	4	0	0	1	1.03543118	17.7114014	138	1	1.06	0.94	40.8083	0.0354	0.0000	0.0000;
	30	1	0	0	0	0	1	1.03119841	22.9794291	345	1	1.06	0.94	39.4583	-0.0174	0.0000	0.0000;
	31	2	43	27	0	0	1	1.03856229	17.8565014	138	1	1.06	0.94	40.7093	0.0000	0.0000	0.0000;
	32	2	59	23	0	0	1	1.04103996	19.4256458	138	1	1.06	0.94	40.2972	0.0000	0.0000	0.0000;
	33	1	23	9	0	0	1	1.04615188	16.7164017	138	1	1.06	0.94	40.5138	0.0669	0.0000	0.0000;
	34	2	59	26	0	14	1	1.05592268	17.3096161	138	1	1.06	0.94	40.0977	-0.0045	0.0000	0.0000;
	35	1	33	9	0	0	1	1.05397783	16.9744726	138	1	1.06	0.94	40.2063	0.0063	0.0000	0.0000;
	36	2	31	17	0	0	1	1.05425214	16.9864331	138	1	1.06	0.94	40.2132	0.0000	0.0000	0.0000;
	37	1	0	0	0	-25	1	1.05999953	17.7119424	138	1	1.06	0.94	39.9119	-0.0311	77.1106	0.0000;
	38	1	0	0	0	0	1	1.01502888	21.2814653	345	1	1.06	0.94	39.6654	0.0159	0.0000	0.0000;
	39	1	27	11	0	0	1	1.04244834	16.0287671	138	1	1.06	0.94	40.8275	0.0752	0.0000	0.0000;
	40	2	66	23	0	0	1	1.04248244	15.8293012	138	1	1.06	0.94	40.9864	0.0000	0.0000	0.0000;
	41	1	37	10	0	0	1	1.03545885	15.398146	138	1	1.06	0.94	41.2477	0.0655	0.0000	0.0000;
	42	2	96	23	0	0	1	1.04061732	16.6973378	138	1	1.06	0.94	40.8199	0.0000	0.0000	0.0000;
	43	1	18	7	0	0	1	1.03996935	16.5916217	138	1	1.06	0.94	40.8417	0.0170	0.0000	0.0000;
	44	1	16	8	0	10	1	1.03090018	17.8342274	138	1	1.06	0.94	41.1236	-0.0241	0.0000	0.0000;
	45	1	53	22	0	10	1	1.02526414	19.1643091	138	1	1.06	0.94	40.9478	0.0820	0.0000	0.0000;
	46	2	28	10	0	10	1	1.03771975	21.4867754	138	1	1.06	0.94	40.0410	-0.0000	0.0000	0.0000;
	47	1	34	0	0	0	1	1.04501482	23.3237737	138	1	1.06	0.94	39.3550	-0.0156	0.0000	0.0000;
	48	1	20	11	0	15	1	1.04730123	22.8983415	138	1	1.06	0.94	39.3989	-0.0790	0.0000	0.0000;
	49	2	87	30	0	0	1	1.04956134	23.8783294	138	1	1.06	0.94	38.9541	-0.0000	0.0000	0.0000;
	50	1	17	4	0	0	1	1.03920977	22.0735437	138	1	1.06	0.94	39.6926	0.0526	0.0000	0.0000;
	51	1	17	8	0	0	1	1.02221299	19.8118918	138	1	1.06	0.94	40.6590	0.2146	0.0000	0.0000;
	52	1	18	5	0	0	1	1.01664697	18.9783556	138	1	1.06	0.94	41.0146	0.2390	0.0000	0.0000;
	53	1	23	11	0	0	1	1.01629733	18.2257725	138	1	1.06	0.94	41.0919	0.1946	0.0000	0.0000;
	54	2	113	32	0	0	1	1.03124568	19.1050345	138	1	1.06	0.94	40.6426	0.0000	0.0000	0.0000;
	55	2	63	22	0	0	1	1.03116906	19.043776	138	1	1.06	0.94	40.6427	0.0000	0.0000	0.0000;
	56	2	84	18	0	0	1	1.03088863	19.1002233	138	1	1.06	0.94	40.6512	0.0028	0.0000	0.0000;
	57	1	12	3	0	0	1	1.03174617	19.9893714	138	1	1.06	0.94	40.4286	0.0364	0.0000	0.0000;
	58	1	12	3	0	0	1	1.02385148	19.2433332	138	1	1.06	0.94	40.7939	0.1338	0.0000	0.0000;
	59	2	277	113	0	0	1	1.04678148	21.7045118	138	1	1.06	0.94	39.3167	0.0000	0.0000	0.0000;
	60	1	78	3	0	0	1	1.04574057	24.6056229	138	1	1.06	0.94	38.7444	0.0033	0.0000	0.0000;
	61	2	0	0	0	0	1	1.04811894	25.3657997	138	1	1.06	0.94	38.5518	-0.0000	0.0000	0.0000;
	62	2	77	14	0	0	1	1.04384115	24.8578329	138	1	1.06	0.94	38.7452	0.0000	0.0000	0.0000;
	63	1	0	0	0	0	1	1.01567038	24.3602594	345	1	1.06	0.94	38.9622	0.0040	0.0000	0.0000;
	64	1	0	0	0	0	1	1.02270947	25.805495	345	1	1.06	0.94	38.5950	-0.0246	0.0000	0.0000;
	65	2	0	0	0	0	1	1.01556227	28.6093421	345	1	1.06	0.94	38.0172	-0.0059	0.0000	0.0000;
	66	2	39	18	0	0	1	1.05999998	28.8699347	138	1	1.06	0.94	37.7989	-0.2150	1515.9180	0.0000;
	67	1	28	7	0	0	1	1.04655616	26.2534036	138	1	1.06	0.94	38.4636	-0.0647	0.0000	0.0000;
	68	1	0	0	0	0	1	1.01464409	28.0030425	345	1	1.06	0.94	37.9447	0.0034	0.0000	0.0000;
	69	3	0	0	0	0	1	1.05999996	30	138	1	1.06	0.94	37.5703	-0.0000	827.6431	0.0000;
	70	2	66	20	0	0	1	1.03926405	23.6942047	138	1	1.06	0.94	39.7266	0.0000	0.0000	0.0000;
	71	1	0	0	0	0	1	1.03945798	23.4751453	138	1	1.06	0.94	39.7619	-0.0102	0.0000	0.0000;
	72	2	12	0	0	0	1	1.03979609	22.9831931	138	1	1.06	0.94	39.7430	-0.0000	0.0000	0.0000;
	73	2	6	0	0	0	1	1.03826204	23.3378147	138	1	1.06	0.94	39.8002	-0.0000	0.0000	0.0000;
	74	2	68	27	0	12	1	1.02192359	22.9076238	138	1	1.06	0.94	40.3386	0.2291	0.0000	0.0000;
	75	1	47	11	0	0	1	1.02415679	23.7764201	138	1	1.06	0.94	40.0355	0.2600	0.0000	0.0000;
	76	2	68	36	0	0	1	1.01180773	22.90374	138	1	1.06	0.94	40.4571	0.4447	0.0000	0.0000;
	77	2	61	28	0	0	1	1.04705768	26.1211033	138	1	1.06	0.94	38.9428	0.0146	0.0000	0.0000;
	78	1	71	26	0	0	1	1.04237867	25.8468741	138	1	1.06	0.94	39.0467	0.0908	0.0000	0.0000;
	79	1	39	32	0	20	1	1.04368926	26.1213829	138	1	1.06	0.94	38.9024	0.1022	0.0000	0.0000;
	80	2	130	26	0	0	1	1.05999988	28.2512976	138	1	1.06	0.94	38.0646	-0.0000	254.6417	0.0000;
	81	1	0	0	0	0	1	1.01075031	28.1093318	345	1	1.06	0.94	37.9834	0.0155	0.0000	0.0000;
	82	1	54	27	0	20	1	1.03770028	25.4735412	138	1	1.06	0.94	39.1261	0.1168	0.0000	0.0000;
	83	1	20	10	0	10	1	1.04001428	25.9185326	138	1	1.06	0.94	38.9001	0.0944	0.0000	0.0000;
	84	1	11	7	0	0	1	1.04273833	27.1722514	138	1	1.06	0.94	38.2966	0.1820	0.0000	0.0000;
	85	2	24	15	0	0	1	1.05050155	28.0655669	138	1	1.06	0.94	37.7737	0.1037	0.0000	0.0000;
	86	1	21	10	0	0	1	1.04431701	26.9510827	138	1	1.06	0.94	38.2025	0.1174	0.0000	0.0000;
	87	2	0	0	0	0	1	1.05709418	27.2529816	161	1	1.06	0.94	38.1310	-0.0000	0.0000	0.0000;
	88	1	48	10	0	0	1	1.04814835	30.1672486	138	1	1.06	0.94	37.3068	0.1167	0.0000	0.0000;
	89	2	0	0	0	0	1	1.05999997	33.3314003	138	1	1.06	0.94	36.5352	-0.0000	1215.6776	0.0000;
	90	2	163	42	0	0	1	1.04178133	27.9181503	138	1	1.06	0.94	38.2863	0.0000	0.0000	0.0000;
	91	2	10	0	0	0	1	1.04564896	28.2162121	138	1	1.06	0.94	38.1244	0.0000	0.0000	0.0000;
	92	2	65	10	0	0	1	1.05000269	29.4211161	138	1	1.06	0.94	37.6087	0.1091	0.0000	0.0000;
	93	1	12	7	0	0	1	1.0400077	27.745252	138	1	1.06	0.94	38.2679	0.2448	0.0000	0.0000;
	94	1	30	16	0	0	1	1.03788867	26.6912669	138	1	1.06	0.94	38.6541	0.2611	0.0000	0.0000;
	95	1	42	31	0	0	1	1.02675966	25.9460495	138	1	1.06	0.94	38.9967	0.4209	0.0000	0.0000;
	96	1	38	15	0	0	1	1.03546335	25.97335	138	1	1.06	0.94	38.8993	0.2373	0.0000	0.0000;
	97	1	15	9	0	0	1	1.04314346	26.7669884	138	1	1.06	0.94	38.5825	0.1703	0.0000	0.0000;
	98	1	34	8	0	0	1	1.05193088	26.6870897	138	1	1.06	0.94	38.5249	0.0478	0.0000	0.0000;
	99	2	42	0	0	0	1	1.05404287	26.194956	138	1	1.06	0.94	38.6487	-0.0000	0.0000	0.0000;
	100	2	37	18	0	0	1	1.05844787	27.1457661	138	1	1.06	0.94	38.3567	-0.0000	0.0000	0.0000;
	101	1	22	15	0	0	1	1.04279135	27.3264458	138	1	1.06	0.94	38.3034	0.1907	0.0000	0.0000;
	102	1	5	3	0	0	1	1.0468412	28.632049	138	1	1.06	0.94	37.8673	0.1454	0.0000	0.0000;
	103	2	23	16	0	0	1	1.05139662	25.1064164	138	1	1.06	0.94	39.1231	-0.0000	0.0000	0.0000;
	104	2	38	25	0	0	1	1.04260109	22.9592687	138	1	1.06	0.94	39.8862	0.0050	0.0000	0.0000;
	105	2	31	26	0	20	1	1.04033749	22.4301064	138	1	1.06	0.94	40.1033	0.0000	0.0000	0.0000;
	106	1	43	16	0	0	1	1.03426895	22.1772452	138	1	1.06	0.94	40.2155	0.0936	0.0000	0.0000;
	107	2	50	12	0	6	1	1.03415648	21.2405123	138	1	1.06	0.94	40.5806	0.0000	0.0000	0.0000;
	108	1	2	1	0	0	1	1.03930999	22.1319965	138	1	1.06	0.94	40.2091	0.0082	0.0000	0.0000;
	109	1	8	3	0	0	1	1.03899946	22.0426707	138	1	1.06	0.94	40.2357	0.0146	0.0000	0.0000;
	110	2	39	30	0	6	1	1.04142109	22.1075209	138	1	1.06	0.94	40.1407	0.0000	0.0000	0.0000;
	111	2	0	0	0	0	1	1.04912084	23.4931386	138	1	1.06	0.94	39.5788	-0.0000	0.0000	0.0000;
	112	2	68	13	0	0	1	1.03407597	21.0264335	138	1	1.06	0.94	40.7296	-0.0000	0.0000	0.0000;
	113	2	6	0	0	0	1	1.05537842	19.0915407	138	1	1.06	0.94	39.7846	-0.0000	0.0000	0.0000;
	114	1	8	3	0	0	1	1.03665131	19.1164757	138	1	1.06	0.94	40.4166	0.0433	0.0000	0.0000;
	115	1	22	7	0	0	1	1.03628335	19.1056615	138	1	1.06	0.94	40.4231	0.0472	0.0000	0.0000;
	116	2	184	0	0	0	1	1.01459336	27.5854753	138	1	1.06	0.94	37.9909	0.0000	0.0000	0.0000;
	117	1	20	8	0	0	1	1.03507073	16.4613774	138	1	1.06	0.94	40.6841	0.1652	0.0000	0.0000;
	118	1	33	15	0	0	1	1.01234526	22.9598827	138	1	1.06	0.94	40.4372	0.4350	0.0000	0.0000;
];

%% generator data
%	bus	Pg	Qg	Qmax	Qmin	Vg	mBase	status	Pmax	Pmin	Pc1	Pc2	Qc1min	Qc1max	Qc2min	Qc2max	ramp_agc	ramp_10	ramp_30	ramp_q	apf	mu_Pmax	mu_Pmin	mu_Qmax	mu_Qmin
mpc.gen = [
	1	26.4819505	14.9998887	15	-5	1.03316796	100	1	100	0	0	0	0	0	0	0	0	0	0	0	0	0.0000	0.0000	0.2814	0.0000;
	4	4.91168824e-05	71.5165873	300	-300	1.05999943	100	1	100	0	0	0	0	0	0	0	0	0	0	0	0	0.0000	0.6675	0.0000	0.0000;
	6	0.0375128931	33.2837968	50	-13	1.05269587	100	1	100	0	0	0	0	0	0	0	0	0	0	0	0	0.0000	0.0290	0.0000	0.0000;
	8	4.19930133e-05	-78.6385052	300	-300	1.04098748	100	1	100	0	0	0	0	0	0	0	0	0	0	0	0	0.0000	0.7699	0.0000	0.0000;
	10	401.870612	-99.6752454	200	-147	1.05297996	100	1	550	0	0	0	0	0	0	0	0	0	0	0	0	0.0000	0.0000	0.0000	0.0000;
	12	85.7927492	54.440111	120	-35	1.04995491	100	1	185	0	0	0	0	0	0	0	0	0	0	0	0	0.0000	0.0000	0.0000	0.0000;
	15	20.8800383	23.8543984	30	-10	1.04856034	100	1	100	0	0	0	0	0	0	0	0	0	0	0	0	0.0000	0.0000	0.0000	0.0000;
	18	13.2232052	30.4726104	50	-16	1.05032318	100	1	100	0	0	0	0	0	0	0	0	0	0	0	0	0.0000	0.0000	0.0000	0.0000;
	19	21.5805659	23.9581812	24	-8	1.04777773	100	1	100	0	0	0	0	0	0	0	0	0	0	0	0	0.0000	0.0000	0.0071	0.0000;
	24	4.49061172e-05	-7.30343956	300	-300	1.04620825	100	1	100	0	0	0	0	0	0	0	0	0	0	0	0	0.0000	0.7044	0.0000	0.0000;
	25	193.813155	-46.9997638	140	-47	1.05999997	100	1	320	0	0	0	0	0	0	0	0	0	0	0	0	0.0000	0.0000	0.0000	0.1322;
	26	279.761147	-27.5759838	1000	-1000	1.02678201	100	1	414	0	0	0	0	0	0	0	0	0	0	0	0	0.0000	0.0000	0.0000	0.0000;
	27	9.92084225	25.5344382	300	-300	1.04137184	100	1	100	0	0	0	0	0	0	0	0	0	0	0	0	0.0000	0.0000	0.0000	0.0000;
	31	7.24825334	27.1871749	300	-300	1.03856229	100	1	107	0	0	0	0	0	0	0	0	0	0	0	0	0.0000	0.0000	0.0000	0.0000;
	32	14.8607477	21.8299444	42	-14	1.04103996	100	1	100	0	0	0	0	0	0	0	0	0	0	0	0	0.0000	0.0000	0.0000	0.0000;
	34	4.88477343	-7.93206215	24	-8	1.05592268	100	1	100	0	0	0	0	0	0	0	0	0	0	0	0	0.0000	0.0000	0.0000	0.0045;
	36	10.6598925	19.7672232	24	-8	1.05425214	100	1	100	0	0	0	0	0	0	0	0	0	0	0	0	0.0000	0.0000	0.0000	0.0000;
	40	49.3204203	28.7513432	300	-300	1.04248244	100	1	100	0	0	0	0	0	0	0	0	0	0	0	0	0.0000	0.0000	0.0000	0.0000;
	42	40.9943534	22.0970214	300	-300	1.04061732	100	1	100	0	0	0	0	0	0	0	0	0	0	0	0	0.0000	0.0000	0.0000	0.0000;
	46	19.038947	-4.14507128	100	-100	1.03771975	100	1	119	0	0	0	0	0	0	0	0	0	0	0	0	0.0000	0.0000	0.0000	0.0000;
	49	193.332132	19.6846441	210	-85	1.04956134	100	1	304	0	0	0	0	0	0	0	0	0	0	0	0	0.0000	0.0000	0.0000	0.0000;
	54	49.5422948	34.8659049	300	-300	1.03124568	100	1	148	0	0	0	0	0	0	0	0	0	0	0	0	0.0000	0.0000	0.0000	0.0000;
	55	32.1339347	20.01265	23	-8	1.03116906	100	1	100	0	0	0	0	0	0	0	0	0	0	0	0	0.0000	0.0000	0.0000	0.0000;
	56	32.5598855	14.8813664	15	-8	1.03088863	100	1	100	0	0	0	0	0	0	0	0	0	0	0	0	0.0000	0.0000	0.0028	0.0000;
	59	149.704663	95.6729931	180	-60	1.04678148	100	1	255	0	0	0	0	0	0	0	0	0	0	0	0	0.0000	0.0000	0.0000	0.0000;
	61	148.414661	31.9618053	300	-100	1.04811894	100	1	260	0	0	0	0	0	0	0	0	0	0	0	0	0.0000	0.0000	0.0000	0.0000;
	62	2.49738686e-05	0.885549079	20	-20	1.04384115	100	1	100	0	0	0	0	0	0	0	0	0	0	0	0	0.0000	1.2548	0.0000	0.0000;
	65	352.235847	-66.9921524	200	-67	1.01556227	100	1	491	0	0	0	0	0	0	0	0	0	0	0	0	0.0000	0.0000	0.0000	0.0059;
	66	348.857994	-66.9998545	200	-67	1.05999998	100	1	492	0	0	0	0	0	0	0	0	0	0	0	0	0.0000	0.0000	0.0000	0.2150;
	69	453.665559	-111.092114	300	-300	1.05999996	100	1	805.2	0	0	0	0	0	0	0	0	0	0	0	0	0.0000	0.0000	0.0000	0.0000;
	70	0.000118481138	28.874693	32	-10	1.03926405	100	1	100	0	0	0	0	0	0	0	0	0	0	0	0	0.0000	0.2734	0.0000	0.0000;
	72	0.000131268508	-5.20105986	100	-100	1.03979609	100	1	100	0	0	0	0	0	0	0	0	0	0	0	0	0.0000	0.2570	0.0000	0.0000;
	73	0.000173010798	-2.21864591	100	-100	1.03826204	100	1	100	0	0	0	0	0	0	0	0	0	0	0	0	0.0000	0.1998	0.0000	0.0000;
	74	16.9307092	8.99985995	9	-6	1.02192359	100	1	100	0	0	0	0	0	0	0	0	0	0	0	0	0.0000	0.0000	0.2291	0.0000;
	76	22.8526975	22.9999286	23	-8	1.01180773	100	1	100	0	0	0	0	0	0	0	0	0	0	0	0	0.0000	0.0000	0.4447	0.0000;
	77	2.96420854e-05	69.9938425	70	-20	1.04705768	100	1	100	0	0	0	0	0	0	0	0	0	0	0	0	0.0000	1.0572	0.0146	0.0000;
	80	430.840641	-9.42455526	280	-165	1.05999988	100	1	577	0	0	0	0	0	0	0	0	0	0	0	0	0.0000	0.0000	0.0000	0.0000;
	85	1.40695986e-05	22.9996973	23	-8	1.05050155	100	1	100	0	0	0	0	0	0	0	0	0	0	0	0	0.0000	2.2263	0.1037	0.0000;
	87	3.62620271	3.53898946	1000	-100	1.05709418	100	1	104	0	0	0	0	0	0	0	0	0	0	0	0	0.0000	0.0000	0.0000	0.0000;
	89	501.843579	-24.0107864	300	-210	1.05999997	100	1	707	0	0	0	0	0	0	0	0	0	0	0	0	0.0000	0.0000	0.0000	0.0000;
	90	1.82804914e-05	47.2145144	300	-300	1.04178133	100	1	100	0	0	0	0	0	0	0	0	0	0	0	0	0.0000	1.7137	0.0000	0.0000;
	91	1.67035043e-05	1.55614075	100	-100	1.04564896	100	1	100	0	0	0	0	0	0	0	0	0	0	0	0	0.0000	1.8756	0.0000	0.0000;
	92	1.30971315e-05	8.99971355	9	-3	1.05000269	100	1	100	0	0	0	0	0	0	0	0	0	0	0	0	0.0000	2.3913	0.1091	0.0000;
	99	2.32372554e-05	-3.17426259	100	-100	1.05404287	100	1	100	0	0	0	0	0	0	0	0	0	0	0	0	0.0000	1.3513	0.0000	0.0000;
	100	231.294077	45.7742592	155	-50	1.05844787	100	1	352	0	0	0	0	0	0	0	0	0	0	0	0	0.0000	0.0000	0.0000	0.0000;
	103	38.2461799	11.7229523	40	-15	1.05139662	100	1	140	0	0	0	0	0	0	0	0	0	0	0	0	0.0000	0.0000	0.0000	0.0000;
	104	0.000369487492	22.8652744	23	-8	1.04260109	100	1	100	0	0	0	0	0	0	0	0	0	0	0	0	0.0000	0.1138	0.0050	0.0000;
	105	5.16363938	9.30620916	23	-8	1.04033749	100	1	100	0	0	0	0	0	0	0	0	0	0	0	0	0.0000	0.0000	0.0000	0.0000;
	107	29.0276852	3.25742782	200	-200	1.03415648	100	1	100	0	0	0	0	0	0	0	0	0	0	0	0	0.0000	0.0000	0.0000	0.0000;
	110	7.0340167	19.6728722	23	-8	1.04142109	100	1	100	0	0	0	0	0	0	0	0	0	0	0	0	0.0000	0.0000	0.0000	0.0000;
	111	35.2418207	-0.247356986	1000	-100	1.04912084	100	1	136	0	0	0	0	0	0	0	0	0	0	0	0	0.0000	0.0000	0.0000	0.0000;
	112	36.4822264	10.2807014	1000	-100	1.03407597	100	1	100	0	0	0	0	0	0	0	0	0	0	0	0	0.0000	0.0000	0.0000	0.0000;
	113	0.000162503907	-10.2309185	200	-100	1.05537842	100	1	100	0	0	0	0	0	0	0	0	0	0	0	0	0.0000	0.2154	0.0000	0.0000;
	116	1.55842175e-05	6.41014377	1000	-1000	1.01459336	100	1	100	0	0	0	0	0	0	0	0	0	0	0	0	0.0000	2.0091	0.0000	0.0000;
];

%% branch data
%	fbus	tbus	r	x	b	rateA	rateB	rateC	ratio	angle	status	angmin	angmax	Pf	Qf	Pt	Qt	mu_Sf	mu_St	mu_angmin	mu_angmax
mpc.branch = [
	1	2	0.0303	0.0999	0.0254	0	0	0	0	0	1	-360	360	-3.2887	-6.1772	3.2984	3.4830	0.0000	0.0000	0.0000	0.0000;
	1	3	0.0129	0.0424	0.01082	0	0	0	0	0	1	-360	360	-21.2294	-5.8229	21.2872	4.8525	0.0000	0.0000	0.0000	0.0000;
	4	5	0.00176	0.00798	0.0021	0	0	0	0	0	1	-360	360	-96.2648	55.3705	96.4582	-54.7291	0.0000	0.0000	0.0000	0.0000;
	3	5	0.0241	0.108	0.0284	0	0	0	0	0	1	-360	360	-54.9571	-6.5324	55.6383	6.4671	0.0000	0.0000	0.0000	0.0000;
	5	6	0.0119	0.054	0.01426	0	0	0	0	0	1	-360	360	80.8396	-7.6528	-80.1391	9.2439	0.0000	0.0000	0.0000	0.0000;
	6	7	0.00459	0.0208	0.0055	0	0	0	0	0	1	-360	360	28.1766	2.0399	-28.1435	-2.4983	0.0000	0.0000	0.0000	0.0000;
	8	9	0.00244	0.0305	1.162	0	0	0	0	0	1	-360	360	-394.5808	-74.8069	398.0896	-9.5743	0.0000	0.0000	0.0000	0.0000;
	8	5	0	0.0267	0	0	0	0	0.985	0	1	-360	360	301.1851	8.4282	-301.1851	13.2738	0.0000	0.0000	0.0000	0.0000;
	9	10	0.00258	0.0322	1.23	0	0	0	0	0	1	-360	360	-398.0896	9.5743	401.8706	-99.6752	0.0000	0.0000	0.0000	0.0000;
	4	11	0.0209	0.0688	0.01748	0	0	0	0	0	1	-360	360	57.2649	4.1461	-56.6500	-4.0603	0.0000	0.0000	0.0000	0.0000;
	5	11	0.0203	0.0682	0.01738	0	0	0	0	0	1	-360	360	68.2491	-2.0872	-67.4032	3.0063	0.0000	0.0000	0.0000	0.0000;
	11	12	0.00595	0.0196	0.00502	0	0	0	0	0	1	-360	360	22.8999	-28.2173	-22.8289	27.8997	0.0000	0.0000	0.0000	0.0000;
	2	12	0.0187	0.0616	0.01572	0	0	0	0	0	1	-360	360	-23.2984	-12.4830	23.4159	11.1554	0.0000	0.0000	0.0000	0.0000;
	3	12	0.0484	0.16	0.0406	0	0	0	0	0	1	-360	360	-5.3301	-8.3201	5.3597	3.9931	0.0000	0.0000	0.0000	0.0000;
	7	12	0.00862	0.034	0.00874	0	0	0	0	0	1	-360	360	9.1435	0.4983	-9.1369	-1.4368	0.0000	0.0000	0.0000	0.0000;
	11	13	0.02225	0.0731	0.01876	0	0	0	0	0	1	-360	360	31.1533	6.2712	-30.9451	-7.6173	0.0000	0.0000	0.0000	0.0000;
	12	14	0.0215	0.0707	0.01816	0	0	0	0	0	1	-360	360	14.4520	-3.6152	-14.4099	1.7537	0.0000	0.0000	0.0000	0.0000;
	13	15	0.0744	0.2444	0.06268	0	0	0	0	0	1	-360	360	-3.0549	-8.3827	3.0789	1.6622	0.0000	0.0000	0.0000	0.0000;
	14	15	0.0595	0.195	0.0502	0	0	0	0	0	1	-360	360	0.4099	-2.7537	-0.4099	-2.7666	0.0000	0.0000	0.0000	0.0000;
	12	16	0.0212	0.0834	0.0214	0	0	0	0	0	1	-360	360	7.3968	1.7639	-7.3846	-4.0665	0.0000	0.0000	0.0000	0.0000;
	15	17	0.0132	0.0437	0.0444	0	0	0	0	0	1	-360	360	-83.4041	-3.3359	84.2393	1.1658	0.0000	0.0000	0.0000	0.0000;
	16	17	0.0454	0.1801	0.0466	0	0	0	0	0	1	-360	360	-17.6154	-5.9335	17.7489	1.2950	0.0000	0.0000	0.0000	0.0000;
	17	18	0.0123	0.0505	0.01298	0	0	0	0	0	1	-360	360	62.0886	5.2920	-61.6626	-4.9882	0.0000	0.0000	0.0000	0.0000;
	18	19	0.01119	0.0493	0.01142	0	0	0	0	0	1	-360	360	14.8858	1.4609	-14.8629	-2.6167	0.0000	0.0000	0.0000	0.0000;
	19	20	0.0252	0.117	0.0298	0	0	0	0	0	1	-360	360	-2.6971	9.3466	2.7265	-12.4458	0.0000	0.0000	0.0000	0.0000;
	15	19	0.012	0.0394	0.0101	0	0	0	0	0	1	-360	360	3.8098	0.3694	-3.8081	-1.4736	0.0000	0.0000	0.0000	0.0000;
	20	21	0.0183	0.0849	0.0216	0	0	0	0	0	1	-360	360	-20.7265	9.4458	20.8189	-11.3255	0.0000	0.0000	0.0000	0.0000;
	21	22	0.0209	0.097	0.0246	0	0	0	0	0	1	-360	360	-34.8189	3.3255	35.0613	-4.8250	0.0000	0.0000	0.0000	0.0000;
	22	23	0.0342	0.159	0.0404	0	0	0	0	0	1	-360	360	-45.0613	-0.1750	45.7114	-1.1866	0.0000	0.0000	0.0000	0.0000;
	23	24	0.0135	0.0492	0.0498	0	0	0	0	0	1	-360	360	20.2371	-2.7963	-20.1868	-2.4846	0.0000	0.0000	0.0000	0.0000;
	23	25	0.0156	0.08	0.0864	0	0	0	0	0	1	-360	360	-148.9442	18.0273	152.1643	-11.1191	0.0000	0.0000	0.0000	0.0000;
	26	25	0	0.0382	0	0	0	0	0.96	0	1	-360	360	83.9556	27.9678	-83.9556	-25.3529	0.0000	0.0000	0.0000	0.0000;
	25	27	0.0318	0.163	0.1764	0	0	0	0	0	1	-360	360	125.6045	-10.5278	-121.1393	13.9401	0.0000	0.0000	0.0000	0.0000;
	27	28	0.01913	0.0855	0.0216	0	0	0	0	0	1	-360	360	30.8926	0.1938	-30.7240	-1.7678	0.0000	0.0000	0.0000	0.0000;
	28	29	0.0237	0.0943	0.0238	0	0	0	0	0	1	-360	360	13.7240	-5.2322	-13.6788	2.8616	0.0000	0.0000	0.0000	0.0000;
	30	17	0	0.0388	0	0	0	0	0.96	0	1	-360	360	198.3920	45.9313	-198.3920	-31.9864	0.0000	0.0000	0.0000	0.0000;
	8	30	0.00431	0.0504	0.514	0	0	0	0	0	1	-360	360	65.3957	-12.2598	-65.2160	-40.8167	0.0000	0.0000	0.0000	0.0000;
	26	30	0.00799	0.086	0.908	0	0	0	0	0	1	-360	360	195.8055	-55.5438	-192.8954	-9.2749	0.0000	0.0000	0.0000	0.0000;
	17	31	0.0474	0.1563	0.0399	0	0	0	0	0	1	-360	360	18.1152	6.9696	-17.9410	-10.7885	0.0000	0.0000	0.0000	0.0000;
	29	31	0.0108	0.0331	0.0083	0	0	0	0	0	1	-360	360	-10.3212	-6.8616	10.3361	6.0146	0.0000	0.0000	0.0000	0.0000;
	23	32	0.0317	0.1153	0.1173	0	0	0	0	0	1	-360	360	75.9957	-17.0444	-74.2988	10.4095	0.0000	0.0000	0.0000	0.0000;
	31	32	0.0298	0.0985	0.0251	0	0	0	0	0	1	-360	360	-28.1468	4.9610	28.3767	-6.9149	0.0000	0.0000	0.0000	0.0000;
	27	32	0.0229	0.0755	0.01926	0	0	0	0	0	1	-360	360	9.7408	-3.5028	-9.7195	1.4850	0.0000	0.0000	0.0000	0.0000;
	15	33	0.038	0.1244	0.03194	0	0	0	0	0	1	-360	360	7.8053	-2.0746	-7.7842	-1.3600	0.0000	0.0000	0.0000	0.0000;
	19	34	0.0752	0.247	0.0632	0	0	0	0	0	1	-360	360	-2.0513	-6.2982	2.0597	-0.6668	0.0000	0.0000	0.0000	0.0000;
	35	36	0.00224	0.0102	0.00268	0	0	0	0	0	1	-360	360	-2.7632	-2.3763	2.7635	2.0797	0.0000	0.0000	0.0000	0.0000;
	35	37	0.011	0.0497	0.01318	0	0	0	0	0	1	-360	360	-30.2368	-6.6237	30.3308	5.5758	0.0000	0.0000	0.0000	0.0000;
	33	37	0.0415	0.142	0.0366	0	0	0	0	0	1	-360	360	-15.2158	-7.6400	15.3157	3.9226	0.0000	0.0000	0.0000	0.0000;
	34	36	0.00871	0.0268	0.00568	0	0	0	0	0	1	-360	360	23.1455	-1.1909	-23.1036	0.6876	0.0000	0.0000	0.0000	0.0000;
	34	37	0.00256	0.0094	0.00984	0	0	0	0	0	1	-360	360	-89.3742	-21.7110	89.5678	21.3208	0.0000	0.0000	0.0000	0.0000;
	38	37	0	0.0375	0	0	0	0	0.935	0	1	-360	360	191.0503	80.0422	-191.0503	-66.3893	0.0000	0.0000	0.0000	0.0000;
	37	39	0.0321	0.106	0.027	0	0	0	0	0	1	-360	360	33.0407	6.4784	-32.7106	-8.3721	0.0000	0.0000	0.0000	0.0000;
	37	40	0.0593	0.168	0.042	0	0	0	0	0	1	-360	360	22.7953	1.0017	-22.5151	-4.8497	0.0000	0.0000	0.0000	0.0000;
	30	38	0.00464	0.054	0.422	0	0	0	0	0	1	-360	360	59.7194	4.1603	-59.5329	-46.1661	0.0000	0.0000	0.0000	0.0000;
	39	40	0.0184	0.0605	0.01552	0	0	0	0	0	1	-360	360	5.7106	-2.6279	-5.7045	0.9612	0.0000	0.0000	0.0000	0.0000;
	40	41	0.0145	0.0487	0.01222	0	0	0	0	0	1	-360	360	19.4503	8.6424	-19.3882	-9.7532	0.0000	0.0000	0.0000	0.0000;
	40	42	0.0555	0.183	0.0466	0	0	0	0	0	1	-360	360	-7.9102	0.9973	7.9485	-5.9263	0.0000	0.0000	0.0000	0.0000;
	41	42	0.041	0.135	0.0344	0	0	0	0	0	1	-360	360	-17.6118	-0.2468	17.7313	-3.0662	0.0000	0.0000	0.0000	0.0000;
	43	44	0.0608	0.2454	0.06068	0	0	0	0	0	1	-360	360	-8.0051	2.6481	8.0608	-8.9287	0.0000	0.0000	0.0000	0.0000;
	34	43	0.0413	0.1681	0.04226	0	0	0	0	0	1	-360	360	10.0538	5.2464	-9.9949	-9.6481	0.0000	0.0000	0.0000	0.0000;
	44	45	0.0224	0.0901	0.0224	0	0	0	0	0	1	-360	360	-24.0608	11.5562	24.2171	-13.2953	0.0000	0.0000	0.0000	0.0000;
	45	46	0.04	0.1356	0.0332	0	0	0	0	0	1	-360	360	-31.6309	-1.1874	32.0118	-1.0541	0.0000	0.0000	0.0000	0.0000;
	46	47	0.038	0.127	0.0316	0	0	0	0	0	1	-360	360	-26.6395	0.7475	26.8921	-3.3303	0.0000	0.0000	0.0000	0.0000;
	46	48	0.0601	0.189	0.0472	0	0	0	0	0	1	-360	360	-14.3333	-3.0698	14.4481	-1.6990	0.0000	0.0000	0.0000	0.0000;
	47	49	0.0191	0.0625	0.01604	0	0	0	0	0	1	-360	360	-17.6360	-3.0060	17.6912	1.4273	0.0000	0.0000	0.0000	0.0000;
	42	49	0.0715	0.323	0.086	0	0	0	0	0	1	-360	360	-40.3428	4.0447	41.4674	-8.3575	0.0000	0.0000	0.0000	0.0000;
	42	49	0.0715	0.323	0.086	0	0	0	0	0	1	-360	360	-40.3428	4.0447	41.4674	-8.3575	0.0000	0.0000	0.0000	0.0000;
	45	49	0.0684	0.186	0.0444	0	0	0	0	0	1	-360	360	-45.5862	2.9943	46.9569	-4.0461	0.0000	0.0000	0.0000	0.0000;
	48	49	0.0179	0.0505	0.01258	0	0	0	0	0	1	-360	360	-34.4481	7.1516	34.6518	-7.9598	0.0000	0.0000	0.0000	0.0000;
	49	50	0.0267	0.0752	0.01874	0	0	0	0	0	1	-360	360	45.3482	-1.9661	-44.8496	1.3264	0.0000	0.0000	0.0000	0.0000;
	49	51	0.0486	0.137	0.0342	0	0	0	0	0	1	-360	360	56.5491	0.9790	-55.1346	-0.6623	0.0000	0.0000	0.0000	0.0000;
	51	52	0.0203	0.0588	0.01396	0	0	0	0	0	1	-360	360	26.0155	0.1524	-25.8839	-1.2219	0.0000	0.0000	0.0000	0.0000;
	52	53	0.0405	0.1635	0.04058	0	0	0	0	0	1	-360	360	7.8839	-3.7781	-7.8584	-0.3119	0.0000	0.0000	0.0000	0.0000;
	53	54	0.0263	0.122	0.031	0	0	0	0	0	1	-360	360	-15.1416	-10.6881	15.2210	7.8071	0.0000	0.0000	0.0000	0.0000;
	49	54	0.073	0.289	0.0738	0	0	0	0	0	1	-360	360	31.1835	-3.9910	-30.5391	-1.4469	0.0000	0.0000	0.0000	0.0000;
	49	54	0.0869	0.291	0.073	0	0	0	0	0	1	-360	360	30.5814	-5.2572	-29.8425	-0.1706	0.0000	0.0000	0.0000	0.0000;
	54	55	0.0169	0.0707	0.0202	0	0	0	0	0	1	-360	360	1.5467	-1.3312	-1.5463	-0.8152	0.0000	0.0000	0.0000	0.0000;
	54	56	0.00275	0.00955	0.00732	0	0	0	0	0	1	-360	360	1.8884	2.9226	-1.8880	-3.6995	0.0000	0.0000	0.0000	0.0000;
	55	56	0.00488	0.0151	0.00374	0	0	0	0	0	1	-360	360	-5.7184	3.5676	5.7205	-3.9585	0.0000	0.0000	0.0000	0.0000;
	56	57	0.0343	0.0966	0.0242	0	0	0	0	0	1	-360	360	-15.4198	3.4067	15.5037	-5.7445	0.0000	0.0000	0.0000	0.0000;
	50	57	0.0474	0.134	0.0332	0	0	0	0	0	1	-360	360	27.8496	-5.3264	-27.5037	2.7445	0.0000	0.0000	0.0000	0.0000;
	56	58	0.0343	0.0966	0.0242	0	0	0	0	0	1	-360	360	-0.0545	6.2467	0.0728	-8.7494	0.0000	0.0000	0.0000	0.0000;
	51	58	0.0255	0.0719	0.01788	0	0	0	0	0	1	-360	360	12.1191	-7.4901	-12.0728	5.7494	0.0000	0.0000	0.0000	0.0000;
	54	59	0.0503	0.2293	0.0598	0	0	0	0	0	1	-360	360	-21.7322	-4.9151	21.9570	-0.5161	0.0000	0.0000	0.0000	0.0000;
	56	59	0.0825	0.251	0.0569	0	0	0	0	0	1	-360	360	-19.4348	-2.7189	19.7281	-2.5297	0.0000	0.0000	0.0000	0.0000;
	56	59	0.0803	0.239	0.0536	0	0	0	0	0	1	-360	360	-20.3635	-2.3951	20.6770	-2.4566	0.0000	0.0000	0.0000	0.0000;
	55	59	0.04739	0.2158	0.05646	0	0	0	0	0	1	-360	360	-23.6014	-4.7397	23.8510	-0.2187	0.0000	0.0000	0.0000	0.0000;
	59	60	0.0317	0.145	0.0376	0	0	0	0	0	1	-360	360	-36.1076	7.5529	36.5116	-9.8213	0.0000	0.0000	0.0000	0.0000;
	59	61	0.0328	0.15	0.0388	0	0	0	0	0	1	-360	360	-44.4598	8.1556	45.0831	-9.5620	0.0000	0.0000	0.0000	0.0000;
	60	61	0.00264	0.0135	0.01456	0	0	0	0	0	1	-360	360	-107.0839	2.4359	107.3610	-2.6149	0.0000	0.0000	0.0000	0.0000;
	60	62	0.0123	0.0561	0.01468	0	0	0	0	0	1	-360	360	-7.4276	4.3853	7.4369	-5.9457	0.0000	0.0000	0.0000	0.0000;
	61	62	0.00824	0.0376	0.0098	0	0	0	0	0	1	-360	360	27.1320	5.5547	-27.0740	-6.3622	0.0000	0.0000	0.0000	0.0000;
	63	59	0	0.0386	0	0	0	0	0.96	0	1	-360	360	132.9410	33.8030	-132.9410	-27.3144	0.0000	0.0000	0.0000	0.0000;
	63	64	0.00172	0.02	0.216	0	0	0	0	0	1	-360	360	-132.9410	-33.8030	133.2442	14.8918	0.0000	0.0000	0.0000	0.0000;
	64	61	0	0.0268	0	0	0	0	0.985	0	1	-360	360	31.1614	-37.9839	-31.1614	38.5840	0.0000	0.0000	0.0000	0.0000;
	38	65	0.00901	0.0986	1.046	0	0	0	0	0	1	-360	360	-131.5174	-33.8762	133.0650	-57.0117	0.0000	0.0000	0.0000	0.0000;
	64	65	0.00269	0.0302	0.38	0	0	0	0	0	1	-360	360	-164.4056	23.0922	165.1483	-54.2235	0.0000	0.0000	0.0000	0.0000;
	49	66	0.018	0.0919	0.0248	0	0	0	0	0	1	-360	360	-102.8245	11.4434	104.5790	-5.2452	0.0000	0.0000	0.0000	0.0000;
	49	66	0.018	0.0919	0.0248	0	0	0	0	0	1	-360	360	-102.8245	11.4434	104.5790	-5.2452	0.0000	0.0000	0.0000	0.0000;
	62	66	0.0482	0.218	0.0578	0	0	0	0	0	1	-360	360	-35.2259	-1.8539	35.7756	-2.0563	0.0000	0.0000	0.0000	0.0000;
	62	67	0.0258	0.117	0.031	0	0	0	0	0	1	-360	360	-22.1370	1.0473	22.2548	-3.8996	0.0000	0.0000	0.0000	0.0000;
	65	66	0	0.037	0	0	0	0	0.935	0	1	-360	360	-14.1526	76.8353	14.1526	-74.9209	0.0000	0.0000	0.0000	0.0000;
	66	67	0.0224	0.1015	0.02682	0	0	0	0	0	1	-360	360	50.7719	2.4677	-50.2548	-3.1004	0.0000	0.0000	0.0000	0.0000;
	65	68	0.00138	0.016	0.638	0	0	0	0	0	1	-360	360	68.1752	-32.5922	-68.1130	-32.4285	0.0000	0.0000	0.0000	0.0000;
	47	69	0.0844	0.2778	0.07092	0	0	0	0	0	1	-360	360	-43.2561	6.3363	44.7827	-9.1682	0.0000	0.0000	0.0000	0.0000;
	49	69	0.0985	0.324	0.0828	0	0	0	0	0	1	-360	360	-33.9157	4.3268	35.0149	-9.9235	0.0000	0.0000	0.0000	0.0000;
	68	69	0	0.037	0	0	0	0	0.935	0	1	-360	360	-108.3339	75.7416	108.3339	-70.2517	0.0000	0.0000	0.0000	0.0000;
	69	70	0.03	0.127	0.122	0	0	0	0	0	1	-360	360	95.2838	-6.8068	-92.8597	3.6264	0.0000	0.0000	0.0000	0.0000;
	24	70	0.00221	0.4115	0.10198	0	0	0	0	0	1	-360	360	-0.0309	-3.8154	0.0309	-7.2612	0.0000	0.0000	0.0000	0.0000;
	70	71	0.00882	0.0355	0.00878	0	0	0	0	0	1	-360	360	10.8303	-3.7104	-10.8199	2.8039	0.0000	0.0000	0.0000	0.0000;
	24	72	0.0488	0.196	0.0488	0	0	0	0	0	1	-360	360	7.2177	-1.0034	-7.1933	-4.2071	0.0000	0.0000	0.0000	0.0000;
	71	72	0.0446	0.18	0.04444	0	0	0	0	0	1	-360	360	4.8170	-3.7675	-4.8066	-0.9940	0.0000	0.0000	0.0000	0.0000;
	71	73	0.00866	0.0454	0.01178	0	0	0	0	0	1	-360	360	6.0029	0.9635	-5.9998	-2.2186	0.0000	0.0000	0.0000	0.0000;
	70	74	0.0401	0.1323	0.03368	0	0	0	0	0	1	-360	360	13.8953	7.6667	-13.7902	-10.8975	0.0000	0.0000	0.0000	0.0000;
	70	75	0.0428	0.141	0.036	0	0	0	0	0	1	-360	360	2.1033	8.5533	-2.0578	-12.2358	0.0000	0.0000	0.0000	0.0000;
	69	75	0.0405	0.122	0.124	0	0	0	0	0	1	-360	360	97.7710	-3.0363	-94.3198	-0.0371	0.0000	0.0000	0.0000	0.0000;
	74	75	0.0123	0.0406	0.01034	0	0	0	0	0	1	-360	360	-37.2791	5.4293	37.4469	-5.9573	0.0000	0.0000	0.0000	0.0000;
	76	77	0.0444	0.148	0.0368	0	0	0	0	0	1	-360	360	-43.1800	-11.9002	44.0321	10.8397	0.0000	0.0000	0.0000	0.0000;
	69	77	0.0309	0.101	0.1038	0	0	0	0	0	1	-360	360	72.4793	-11.9056	-71.0245	5.1395	0.0000	0.0000	0.0000	0.0000;
	75	77	0.0601	0.1999	0.04978	0	0	0	0	0	1	-360	360	-23.2384	-6.9079	23.5584	2.6328	0.0000	0.0000	0.0000	0.0000;
	77	78	0.00376	0.0124	0.01264	0	0	0	0	0	1	-360	360	49.5796	23.8837	-49.4746	-24.9170	0.0000	0.0000	0.0000	0.0000;
	78	79	0.00546	0.0244	0.00648	0	0	0	0	0	1	-360	360	-21.5254	-1.0830	21.5487	0.4822	0.0000	0.0000	0.0000	0.0000;
	77	80	0.017	0.0485	0.0472	0	0	0	0	0	1	-360	360	-83.9823	0.4905	85.0774	-2.6052	0.0000	0.0000	0.0000	0.0000;
	77	80	0.0294	0.105	0.0228	0	0	0	0	0	1	-360	360	-39.5950	-2.3387	40.0158	1.3106	0.0000	0.0000	0.0000	0.0000;
	79	80	0.0156	0.0704	0.0187	0	0	0	0	0	1	-360	360	-60.5487	-10.6965	61.0872	11.0574	0.0000	0.0000	0.0000	0.0000;
	68	81	0.00175	0.0202	0.808	0	0	0	0	0	1	-360	360	-7.6656	-21.3607	7.6736	-61.4127	0.0000	0.0000	0.0000	0.0000;
	81	80	0	0.037	0	0	0	0	0.935	0	1	-360	360	-7.6736	61.4127	7.6736	-60.1999	0.0000	0.0000	0.0000	0.0000;
	77	82	0.0298	0.0853	0.08174	0	0	0	0	0	1	-360	360	16.4317	1.3463	-16.3491	-9.9915	0.0000	0.0000	0.0000	0.0000;
	82	83	0.0112	0.03665	0.03796	0	0	0	0	0	1	-360	360	-22.7228	-1.5629	22.7765	-2.3580	0.0000	0.0000	0.0000	0.0000;
	83	84	0.0625	0.132	0.0258	0	0	0	0	0	1	-360	360	-15.4377	3.9647	15.5921	-6.4367	0.0000	0.0000	0.0000	0.0000;
	83	85	0.043	0.148	0.0348	0	0	0	0	0	1	-360	360	-27.3388	-0.7903	27.6364	-1.9876	0.0000	0.0000	0.0000	0.0000;
	84	85	0.0302	0.0641	0.01234	0	0	0	0	0	1	-360	360	-26.5921	-0.5633	26.7885	-0.3715	0.0000	0.0000	0.0000	0.0000;
	85	86	0.035	0.123	0.0276	0	0	0	0	0	1	-360	360	17.4833	-1.0471	-17.3863	-1.6399	0.0000	0.0000	0.0000	0.0000;
	86	87	0.02828	0.2074	0.0445	0	0	0	0	0	1	-360	360	-3.6137	-8.3601	3.6262	3.5390	0.0000	0.0000	0.0000	0.0000;
	85	88	0.02	0.102	0.0276	0	0	0	0	0	1	-360	360	-37.5278	8.9852	37.8031	-10.6204	0.0000	0.0000	0.0000	0.0000;
	85	89	0.0239	0.173	0.047	0	0	0	0	0	1	-360	360	-58.3804	2.4207	59.1239	-2.2721	0.0000	0.0000	0.0000	0.0000;
	88	89	0.0139	0.0712	0.01934	0	0	0	0	0	1	-360	360	-85.8031	0.6204	86.7349	2.0039	0.0000	0.0000	0.0000	0.0000;
	89	90	0.0518	0.188	0.0528	0	0	0	0	0	1	-360	360	54.8047	-5.1749	-53.4178	4.3771	0.0000	0.0000	0.0000	0.0000;
	89	90	0.0238	0.0997	0.106	0	0	0	0	0	1	-360	360	104.3472	-6.5548	-102.0408	4.5095	0.0000	0.0000	0.0000	0.0000;
	90	91	0.0254	0.0836	0.0214	0	0	0	0	0	1	-360	360	-7.5414	-3.6720	7.5562	1.3895	0.0000	0.0000	0.0000	0.0000;
	89	92	0.0099	0.0505	0.0548	0	0	0	0	0	1	-360	360	149.6658	-6.3040	-147.6912	10.2767	0.0000	0.0000	0.0000	0.0000;
	89	92	0.0393	0.1581	0.0414	0	0	0	0	0	1	-360	360	47.1670	-5.7088	-46.3848	4.2473	0.0000	0.0000	0.0000	0.0000;
	91	92	0.0387	0.1272	0.03268	0	0	0	0	0	1	-360	360	-17.5562	0.1667	17.6666	-3.3917	0.0000	0.0000	0.0000	0.0000;
	92	93	0.0258	0.0848	0.0218	0	0	0	0	0	1	-360	360	38.0694	0.1425	-37.7299	-1.4071	0.0000	0.0000	0.0000	0.0000;
	92	94	0.0481	0.158	0.0406	0	0	0	0	0	1	-360	360	32.5248	-3.3064	-32.0628	0.3993	0.0000	0.0000	0.0000	0.0000;
	93	94	0.0223	0.0732	0.01876	0	0	0	0	0	1	-360	360	25.7299	-5.5929	-25.5890	4.0301	0.0000	0.0000	0.0000	0.0000;
	94	95	0.0132	0.0434	0.0111	0	0	0	0	0	1	-360	360	36.6989	15.0624	-36.5038	-15.6040	0.0000	0.0000	0.0000	0.0000;
	80	96	0.0356	0.182	0.0494	0	0	0	0	0	1	-360	360	25.8692	6.9317	-25.6273	-11.1186	0.0000	0.0000	0.0000	0.0000;
	82	96	0.0162	0.053	0.0544	0	0	0	0	0	1	-360	360	-14.9281	6.0908	14.9738	-11.7864	0.0000	0.0000	0.0000	0.0000;
	94	96	0.0269	0.0869	0.023	0	0	0	0	0	1	-360	360	14.9862	-2.8840	-14.9295	0.5956	0.0000	0.0000	0.0000	0.0000;
	80	97	0.0183	0.0934	0.0254	0	0	0	0	0	1	-360	360	33.2168	11.5925	-33.0095	-13.3433	0.0000	0.0000	0.0000	0.0000;
	80	98	0.0238	0.108	0.0286	0	0	0	0	0	1	-360	360	28.6230	0.3899	-28.4486	-2.7877	0.0000	0.0000	0.0000	0.0000;
	80	99	0.0454	0.206	0.0546	0	0	0	0	0	1	-360	360	19.2777	-3.9015	-19.1272	-1.5164	0.0000	0.0000	0.0000	0.0000;
	92	100	0.0648	0.295	0.0472	0	0	0	0	0	1	-360	360	13.7010	-8.3204	-13.5715	3.6643	0.0000	0.0000	0.0000	0.0000;
	94	100	0.0178	0.058	0.0604	0	0	0	0	0	1	-360	360	-24.0333	-32.6078	24.2711	26.7462	0.0000	0.0000	0.0000	0.0000;
	95	96	0.0171	0.0547	0.01474	0	0	0	0	0	1	-360	360	-5.4962	-15.3960	5.5358	13.9554	0.0000	0.0000	0.0000	0.0000;
	96	97	0.0173	0.0885	0.024	0	0	0	0	0	1	-360	360	-17.9529	-6.6460	18.0095	4.3433	0.0000	0.0000	0.0000	0.0000;
	98	100	0.0397	0.179	0.0476	0	0	0	0	0	1	-360	360	-5.5514	-5.2123	5.5648	-0.0270	0.0000	0.0000	0.0000	0.0000;
	99	100	0.018	0.0813	0.0216	0	0	0	0	0	1	-360	360	-22.8727	-1.6579	22.9575	-0.3690	0.0000	0.0000	0.0000	0.0000;
	100	101	0.0277	0.1262	0.0328	0	0	0	0	0	1	-360	360	0.1194	11.2721	-0.0769	-14.6991	0.0000	0.0000	0.0000	0.0000;
	92	102	0.0123	0.0559	0.01464	0	0	0	0	0	1	-360	360	27.1142	-0.6482	-27.0322	-0.5882	0.0000	0.0000	0.0000	0.0000;
	101	102	0.0246	0.112	0.0294	0	0	0	0	0	1	-360	360	-21.9231	-0.3009	22.0322	-2.4118	0.0000	0.0000	0.0000	0.0000;
	100	103	0.016	0.0525	0.0536	0	0	0	0	0	1	-360	360	73.3597	-9.8011	-72.5846	6.3798	0.0000	0.0000	0.0000	0.0000;
	100	104	0.0451	0.204	0.0541	0	0	0	0	0	1	-360	360	39.6881	-2.1392	-39.0537	-0.9620	0.0000	0.0000	0.0000	0.0000;
	103	104	0.0466	0.1584	0.0407	0	0	0	0	0	1	-360	360	25.5749	-3.4495	-25.2985	-0.0729	0.0000	0.0000	0.0000	0.0000;
	103	105	0.0535	0.1625	0.0408	0	0	0	0	0	1	-360	360	30.6998	-4.4728	-30.2413	1.4025	0.0000	0.0000	0.0000	0.0000;
	100	106	0.0605	0.229	0.062	0	0	0	0	0	1	-360	360	41.9048	-1.5720	-40.9546	-1.6203	0.0000	0.0000	0.0000	0.0000;
	104	105	0.00994	0.0378	0.00986	0	0	0	0	0	1	-360	360	26.3526	-1.0998	-26.2891	0.2719	0.0000	0.0000	0.0000	0.0000;
	105	106	0.014	0.0547	0.01434	0	0	0	0	0	1	-360	360	10.9245	7.9889	-10.8991	-9.4327	0.0000	0.0000	0.0000	0.0000;
	105	107	0.053	0.183	0.0472	0	0	0	0	0	1	-360	360	12.2337	-2.4568	-12.1604	-2.3684	0.0000	0.0000	0.0000	0.0000;
	105	108	0.0261	0.0703	0.01844	0	0	0	0	0	1	-360	360	7.5358	-2.2543	-7.5218	0.2984	0.0000	0.0000	0.0000	0.0000;
	106	107	0.053	0.183	0.0472	0	0	0	0	0	1	-360	360	8.8537	-4.9470	-8.8119	0.0427	0.0000	0.0000	0.0000	0.0000;
	108	109	0.0105	0.0288	0.0076	0	0	0	0	0	1	-360	360	5.5218	-1.2984	-5.5187	0.4861	0.0000	0.0000	0.0000	0.0000;
	103	110	0.03906	0.1813	0.0461	0	0	0	0	0	1	-360	360	31.5561	-2.7345	-31.2042	-0.6802	0.0000	0.0000	0.0000	0.0000;
	109	110	0.0278	0.0762	0.0202	0	0	0	0	0	1	-360	360	-2.4813	-3.4861	2.4843	1.3088	0.0000	0.0000	0.0000	0.0000;
	110	111	0.022	0.0755	0.02	0	0	0	0	0	1	-360	360	-34.9934	-1.0854	35.2418	-0.2474	0.0000	0.0000	0.0000	0.0000;
	110	112	0.0247	0.064	0.062	0	0	0	0	0	1	-360	360	31.7473	-3.3629	-31.5178	-2.7193	0.0000	0.0000	0.0000	0.0000;
	17	113	0.00913	0.0301	0.00768	0	0	0	0	0	1	-360	360	5.2000	14.2640	-5.1802	-15.0581	0.0000	0.0000	0.0000	0.0000;
	32	113	0.0615	0.203	0.0518	0	0	0	0	0	1	-360	360	0.8528	-10.4093	-0.8196	4.8271	0.0000	0.0000	0.0000	0.0000;
	32	114	0.0135	0.0612	0.01628	0	0	0	0	0	1	-360	360	10.6495	4.2596	-10.6321	-5.9376	0.0000	0.0000	0.0000	0.0000;
	27	115	0.0164	0.0741	0.01972	0	0	0	0	0	1	-360	360	19.4267	1.9033	-19.3683	-3.7675	0.0000	0.0000	0.0000	0.0000;
	114	115	0.0023	0.0104	0.00276	0	0	0	0	0	1	-360	360	2.6321	2.9376	-2.6317	-3.2325	0.0000	0.0000	0.0000	0.0000;
	68	116	0.00034	0.00405	0.164	0	0	0	0	0	1	-360	360	184.1125	-21.9525	-184.0000	6.4101	0.0000	0.0000	0.0000	0.0000;
	12	117	0.0329	0.14	0.0358	0	0	0	0	0	1	-360	360	20.1342	4.6800	-20.0000	-8.0000	0.0000	0.0000	0.0000	0.0000;
	75	118	0.0145	0.0481	0.01198	0	0	0	0	0	1	-360	360	35.1691	14.1381	-34.9680	-14.7131	0.0000	0.0000	0.0000	0.0000;
	76	118	0.0164	0.0544	0.01356	0	0	0	0	0	1	-360	360	-1.9673	-1.0999	1.9680	-0.2869	0.0000	0.0000	0.0000	0.0000;
];

%%-----  OPF Data  -----%%
%% generator cost data
%	1	startup	shutdown	n	x1	y1	...	xn	yn
%	2	startup	shutdown	n	c(n-1)	...	c0
mpc.gencost = [
	2	0	0	3	0.01	40	0;
	2	0	0	3	0.01	40	0;
	2	0	0	3	0.01	40	0;
	2	0	0	3	0.01	40	0;
	2	0	0	3	0.0222222222	20	0;
	2	0	0	3	0.117647059	20	0;
	2	0	0	3	0.01	40	0;
	2	0	0	3	0.01	40	0;
	2	0	0	3	0.01	40	0;
	2	0	0	3	0.01	40	0;
	2	0	0	3	0.0454545455	20	0;
	2	0	0	3	0.0318471338	20	0;
	2	0	0	3	0.01	40	0;
	2	0	0	3	1.42857143	20	0;
	2	0	0	3	0.01	40	0;
	2	0	0	3	0.01	40	0;
	2	0	0	3	0.01	40	0;
	2	0	0	3	0.01	40	0;
	2	0	0	3	0.01	40	0;
	2	0	0	3	0.526315789	20	0;
	2	0	0	3	0.0490196078	20	0;
	2	0	0	3	0.208333333	20	0;
	2	0	0	3	0.01	40	0;
	2	0	0	3	0.01	40	0;
	2	0	0	3	0.064516129	20	0;
	2	0	0	3	0.0625	20	0;
	2	0	0	3	0.01	40	0;
	2	0	0	3	0.0255754476	20	0;
	2	0	0	3	0.0255102041	20	0;
	2	0	0	3	0.0193648335	20	0;
	2	0	0	3	0.01	40	0;
	2	0	0	3	0.01	40	0;
	2	0	0	3	0.01	40	0;
	2	0	0	3	0.01	40	0;
	2	0	0	3	0.01	40	0;
	2	0	0	3	0.01	40	0;
	2	0	0	3	0.0209643606	20	0;
	2	0	0	3	0.01	40	0;
	2	0	0	3	2.5	20	0;
	2	0	0	3	0.0164744646	20	0;
	2	0	0	3	0.01	40	0;
	2	0	0	3	0.01	40	0;
	2	0	0	3	0.01	40	0;
	2	0	0	3	0.01	40	0;
	2	0	0	3	0.0396825397	20	0;
	2	0	0	3	0.25	20	0;
	2	0	0	3	0.01	40	0;
	2	0	0	3	0.01	40	0;
	2	0	0	3	0.01	40	0;
	2	0	0	3	0.01	40	0;
	2	0	0	3	0.277777778	20	0;
	2	0	0	3	0.01	40	0;
	2	0	0	3	0.01	40	0;
	2	0	0	3	0.01	40	0;
];

%% bus names
mpc.bus_name = {
	'Riversde  V2';
	'Pokagon   V2';
	'HickryCk  V2';
	'NwCarlsl  V2';
	'Olive     V2';
	'Kankakee  V2';
	'JacksnRd  V2';
	'Olive     V1';
	'Bequine   V1';
	'Breed     V1';
	'SouthBnd  V2';
	'TwinBrch  V2';
	'Concord   V2';
	'GoshenJt  V2';
	'FtWayne   V2';
	'N. E.     V2';
	'Sorenson  V2';
	'McKinley  V2';
	'Lincoln   V2';
	'Adams     V2';
	'Jay       V2';
	'Randolph  V2';
	'CollCrnr  V2';
	'Trenton   V2';
	'TannrsCk  V2';
	'TannrsCk  V1';
	'Madison   V2';
	'Mullin    V2';
	'Grant     V2';
	'Sorenson  V1';
	'DeerCrk   V2';
	'Delaware  V2';
	'Haviland  V2';
	'Rockhill  V2';
	'WestLima  V2';
	'Sterling  V2';
	'EastLima  V2';
	'EastLima  V1';
	'NwLibrty  V2';
	'West End  V2';
	'S.Tiffin  V2';
	'Howard    V2';
	'S.Kenton  V2';
	'WMVernon  V2';
	'N.Newark  V2';
	'W.Lancst  V2';
	'Crooksvl  V2';
	'Zanesvll  V2';
	'Philo     V2';
	'WCambrdg  V2';
	'Newcmrst  V2';
	'SCoshoct  V2';
	'Wooster   V2';
	'Torrey    V2';
	'Wagenhls  V2';
	'Sunnysde  V2';
	'WNwPhil1  V2';
	'WNwPhil2  V2';
	'Tidd      V2';
	'SWKammer  V2';
	'W.Kammer  V2';
	'Natrium   V2';
	'Tidd      V1';
	'Kammer    V1';
	'Muskngum  V1';
	'Muskngum  V2';
	'Summerfl  V2';
	'Sporn     V1';
	'Sporn     V2';
	'Portsmth  V2';
	'NPortsmt  V2';
	'Hillsbro  V2';
	'Sargents  V2';
	'Bellefnt  V2';
	'SthPoint  V2';
	'Darrah    V2';
	'Turner    V2';
	'Chemical  V2';
	'CapitlHl  V2';
	'CabinCrk  V2';
	'Kanawha   V1';
	'Logan     V2';
	'Sprigg    V2';
	'BetsyLne  V2';
	'BeaverCk  V2';
	'Hazard    V2';
	'Pinevlle  V3';
	'Fremont   V2';
	'ClinchRv  V2';
	'Holston   V2';
	'HolstonT  V2';
	'Saltvlle  V2';
	'Tazewell  V2';
	'Switchbk  V2';
	'Caldwell  V2';
	'Baileysv  V2';
	'Sundial   V2';
	'Bradley   V2';
	'Hinton    V2';
	'Glen Lyn  V2';
	'Wythe     V2';
	'Smythe    V2';
	'Claytor   V2';
	'Hancock   V2';
	'Roanoke   V2';
	'Cloverdl  V2';
	'Reusens   V2';
	'Blaine    V2';
	'Franklin  V2';
	'Fieldale  V2';
	'DanRiver  V2';
	'Danville  V2';
	'Deer Crk  V2';
	'WMedford  V2';
	'Medford   V2';
	'KygerCrk  V2';
	'Corey     V2';
	'WHuntngd  V2';
};
